<routes>
        <vType id="normal" vClass="passenger" maxSpeed="40" speedFactor="0.9" speedDev="0.2" sigma="0.5" />
        <vType id="sporty" vClass="passenger" maxSpeed="60" speedFactor="1.3" speedDev="0.1" sigma="0.1" />
        <vType id="trailer" vClass="trailer"  maxSpeed="30" speedFactor="1.1" speedDev="0.1" color="0,1,0" />
    
        <route id="left-right" edges="E0 NE4" />
        <route id="cross" edges="gneE3 -gneE0" />
</routes>
