<?xml version="1.0" encoding="UTF-8"?>

<!-- generated on 2017年08月24日 星期四 18时08分25秒 by Netedit Version 0.30.0
<?xml version="1.0" encoding="UTF-8"?>

<configuration xmlns:xsi="http://www.w3.org/2001/XMLSchema-instance" xsi:noNamespaceSchemaLocation="http://sumo.dlr.de/xsd/netconvertConfiguration.xsd">

    <input>
        <sumo-net-file value="/home/lvxubo/Pycharm_Projects/Learn-Crossroad/crossing/crossroad.net.xml"/>
    </input>

    <output>
        <output-file value="/home/lvxubo/Pycharm_Projects/Learn-Crossroad/crossing/crossroad.net.xml"/>
    </output>

    <processing>
        <no-internal-links value="false"/>
        <no-turnarounds value="true"/>
        <offset.disable-normalization value="true"/>
        <lefthand value="false"/>
        <junctions.corner-detail value="0"/>
        <rectangular-lane-cut value="false"/>
    </processing>

</configuration>
-->

<net version="0.27" xmlns:xsi="http://www.w3.org/2001/XMLSchema-instance" xsi:noNamespaceSchemaLocation="http://sumo.dlr.de/xsd/net_file.xsd">

    <location netOffset="0.00,0.00" convBoundary="-800.00,-800.00,800.00,800.00" origBoundary="-10000000000.00,-10000000000.00,10000000000.00,10000000000.00" projParameter="!"/>

    <edge id=":bottom_w0" function="walkingarea">
        <lane id=":bottom_w0_0" index="0" allow="pedestrian" speed="1.00" length="9.90" width="3.20" shape="0.05,-800.00 3.25,-800.00 3.35,-800.00 6.55,-800.00 -6.55,-800.00 -3.35,-800.00 -3.25,-800.00 -0.05,-800.00"/>
    </edge>
    <edge id=":left_w0" function="walkingarea">
        <lane id=":left_w0_0" index="0" allow="pedestrian" speed="1.00" length="9.90" width="3.20" shape="-800.00,-0.05 -800.00,-3.25 -800.00,-3.35 -800.00,-6.55 -800.00,6.55 -800.00,3.35 -800.00,3.25 -800.00,0.05"/>
    </edge>
    <edge id=":origin_0" function="internal">
        <lane id=":origin_0_0" index="0" speed="20.00" length="0.71" shape="-4.95,8.05 -5.05,7.35"/>
    </edge>
    <edge id=":origin_1" function="internal">
        <lane id=":origin_1_0" index="0" speed="20.00" length="16.10" shape="-4.95,8.05 -4.95,-8.05"/>
        <lane id=":origin_1_1" index="1" speed="20.00" length="16.10" shape="-1.65,8.05 -1.65,-8.05"/>
    </edge>
    <edge id=":origin_3" function="internal">
        <lane id=":origin_3_0" index="0" speed="20.00" length="6.41" shape="-1.65,8.05 -1.04,3.81 0.05,1.98"/>
    </edge>
    <edge id=":origin_16" function="internal">
        <lane id=":origin_16_0" index="0" speed="20.00" length="4.29" shape="-5.05,7.35 -5.14,6.69 -5.72,5.73 -6.69,5.14 -8.05,4.95"/>
    </edge>
    <edge id=":origin_17" function="internal">
        <lane id=":origin_17_0" index="0" speed="20.00" length="9.23" shape="0.05,1.98 0.77,0.77 3.81,-1.04 8.05,-1.65"/>
    </edge>
    <edge id=":origin_4" function="internal">
        <lane id=":origin_4_0" index="0" speed="20.00" length="5.00" shape="8.05,4.95 6.69,5.14 5.73,5.72 5.14,6.69 4.95,8.05"/>
    </edge>
    <edge id=":origin_5" function="internal">
        <lane id=":origin_5_0" index="0" speed="20.00" length="16.10" shape="8.05,4.95 -8.05,4.95"/>
        <lane id=":origin_5_1" index="1" speed="20.00" length="16.10" shape="8.05,1.65 -8.05,1.65"/>
    </edge>
    <edge id=":origin_7" function="internal">
        <lane id=":origin_7_0" index="0" speed="20.00" length="15.64" shape="8.05,1.65 3.81,1.04 0.77,-0.77 -1.04,-3.81 -1.65,-8.05"/>
    </edge>
    <edge id=":origin_8" function="internal">
        <lane id=":origin_8_0" index="0" speed="20.00" length="0.71" shape="4.95,-8.05 5.05,-7.35"/>
    </edge>
    <edge id=":origin_9" function="internal">
        <lane id=":origin_9_0" index="0" speed="20.00" length="16.10" shape="4.95,-8.05 4.95,8.05"/>
        <lane id=":origin_9_1" index="1" speed="20.00" length="16.10" shape="1.65,-8.05 1.65,8.05"/>
    </edge>
    <edge id=":origin_11" function="internal">
        <lane id=":origin_11_0" index="0" speed="20.00" length="6.41" shape="1.65,-8.05 1.04,-3.81 -0.05,-1.98"/>
    </edge>
    <edge id=":origin_18" function="internal">
        <lane id=":origin_18_0" index="0" speed="20.00" length="4.29" shape="5.05,-7.35 5.14,-6.69 5.72,-5.73 6.69,-5.14 8.05,-4.95"/>
    </edge>
    <edge id=":origin_19" function="internal">
        <lane id=":origin_19_0" index="0" speed="20.00" length="9.23" shape="-0.05,-1.98 -0.77,-0.77 -3.81,1.04 -8.05,1.65"/>
    </edge>
    <edge id=":origin_12" function="internal">
        <lane id=":origin_12_0" index="0" speed="20.00" length="5.00" shape="-8.05,-4.95 -6.69,-5.14 -5.73,-5.72 -5.14,-6.69 -4.95,-8.05"/>
    </edge>
    <edge id=":origin_13" function="internal">
        <lane id=":origin_13_0" index="0" speed="20.00" length="16.10" shape="-8.05,-4.95 8.05,-4.95"/>
        <lane id=":origin_13_1" index="1" speed="20.00" length="16.10" shape="-8.05,-1.65 8.05,-1.65"/>
    </edge>
    <edge id=":origin_15" function="internal">
        <lane id=":origin_15_0" index="0" speed="20.00" length="15.64" shape="-8.05,-1.65 -3.81,-1.04 -0.77,0.77 1.04,3.81 1.65,8.05"/>
    </edge>
    <edge id=":origin_c0" function="crossing" crossingEdges="NE5 E5">
        <lane id=":origin_c0_0" index="0" allow="pedestrian" speed="1.00" length="13.10" width="3.00" shape="6.55,6.55 -6.55,6.55"/>
    </edge>
    <edge id=":origin_c1" function="crossing" crossingEdges="NE4 gneE4">
        <lane id=":origin_c1_0" index="0" allow="pedestrian" speed="1.00" length="13.10" width="3.00" shape="6.55,-6.55 6.55,6.55"/>
    </edge>
    <edge id=":origin_c2" function="crossing" crossingEdges="NE3 gneE3">
        <lane id=":origin_c2_0" index="0" allow="pedestrian" speed="1.00" length="13.10" width="3.00" shape="-6.55,-6.55 6.55,-6.55"/>
    </edge>
    <edge id=":origin_c3" function="crossing" crossingEdges="-gneE0 E0">
        <lane id=":origin_c3_0" index="0" allow="pedestrian" speed="1.00" length="13.10" width="3.00" shape="-6.55,6.55 -6.55,-6.55"/>
    </edge>
    <edge id=":origin_w0" function="walkingarea">
        <lane id=":origin_w0_0" index="0" allow="pedestrian" speed="1.00" length="4.38" width="3.20" shape="-8.05,0.05 -8.05,3.25 -8.05,3.35 -8.05,6.55 -6.55,8.05 -3.35,8.05 -3.25,8.05 -0.05,8.05"/>
    </edge>
    <edge id=":origin_w1" function="walkingarea">
        <lane id=":origin_w1_0" index="0" allow="pedestrian" speed="1.00" length="4.38" width="3.20" shape="0.05,8.05 3.25,8.05 3.35,8.05 6.55,8.05 8.05,6.55 8.05,3.35 8.05,3.25 8.05,0.05"/>
    </edge>
    <edge id=":origin_w2" function="walkingarea">
        <lane id=":origin_w2_0" index="0" allow="pedestrian" speed="1.00" length="4.38" width="3.20" shape="8.05,-0.05 8.05,-3.25 8.05,-3.35 8.05,-6.55 6.55,-8.05 3.35,-8.05 3.25,-8.05 0.05,-8.05"/>
    </edge>
    <edge id=":origin_w3" function="walkingarea">
        <lane id=":origin_w3_0" index="0" allow="pedestrian" speed="1.00" length="4.38" width="3.20" shape="-0.05,-8.05 -3.25,-8.05 -3.35,-8.05 -6.55,-8.05 -8.05,-6.55 -8.05,-3.35 -8.05,-3.25 -8.05,-0.05"/>
    </edge>
    <edge id=":origin_w4" function="walkingarea">
        <lane id=":origin_w4_0" index="0" allow="pedestrian" speed="1.00" length="0.10" width="3.00" shape="-6.55,5.05 -6.55,8.05 -8.05,6.55 -5.05,6.55"/>
    </edge>
    <edge id=":origin_w5" function="walkingarea">
        <lane id=":origin_w5_0" index="0" allow="pedestrian" speed="1.00" length="0.10" width="3.00" shape="5.05,6.55 8.05,6.55 6.55,8.05 6.55,5.05"/>
    </edge>
    <edge id=":origin_w6" function="walkingarea">
        <lane id=":origin_w6_0" index="0" allow="pedestrian" speed="1.00" length="0.10" width="3.00" shape="6.55,-5.05 6.55,-8.05 8.05,-6.55 5.05,-6.55"/>
    </edge>
    <edge id=":origin_w7" function="walkingarea">
        <lane id=":origin_w7_0" index="0" allow="pedestrian" speed="1.00" length="0.10" width="3.00" shape="-5.05,-6.55 -8.05,-6.55 -6.55,-8.05 -6.55,-5.05"/>
    </edge>
    <edge id=":right_w0" function="walkingarea">
        <lane id=":right_w0_0" index="0" allow="pedestrian" speed="1.00" length="9.90" width="3.20" shape="800.00,0.05 800.00,3.25 800.00,3.35 800.00,6.55 800.00,-6.55 800.00,-3.35 800.00,-3.25 800.00,-0.05"/>
    </edge>
    <edge id=":top_w0" function="walkingarea">
        <lane id=":top_w0_0" index="0" allow="pedestrian" speed="1.00" length="9.90" width="3.20" shape="-0.05,800.00 -3.25,800.00 -3.35,800.00 -6.55,800.00 6.55,800.00 3.35,800.00 3.25,800.00 0.05,800.00"/>
    </edge>

    <edge id="-gneE0" from="origin" to="left" priority="1">
        <lane id="-gneE0_0" index="0" speed="20.00" length="791.95" shape="-8.05,4.95 -800.00,4.95"/>
        <lane id="-gneE0_1" index="1" speed="20.00" length="791.95" shape="-8.05,1.65 -800.00,1.65"/>
    </edge>
    <edge id="E0" from="left" to="origin" priority="1">
        <lane id="E0_0" index="0" speed="20.00" length="791.95" shape="-800.00,-4.95 -8.05,-4.95"/>
        <lane id="E0_1" index="1" speed="20.00" length="791.95" shape="-800.00,-1.65 -8.05,-1.65"/>
    </edge>
    <edge id="E5" from="top" to="origin" priority="1">
        <lane id="E5_0" index="0" speed="20.00" length="791.95" shape="-4.95,800.00 -4.95,8.05"/>
        <lane id="E5_1" index="1" speed="20.00" length="791.95" shape="-1.65,800.00 -1.65,8.05"/>
    </edge>
    <edge id="NE3" from="origin" to="bottom" priority="1">
        <lane id="NE3_0" index="0" speed="20.00" length="791.95" shape="-4.95,-8.05 -4.95,-800.00"/>
        <lane id="NE3_1" index="1" speed="20.00" length="791.95" shape="-1.65,-8.05 -1.65,-800.00"/>
    </edge>
    <edge id="NE4" from="origin" to="right" priority="1">
        <lane id="NE4_0" index="0" speed="20.00" length="791.95" shape="8.05,-4.95 800.00,-4.95"/>
        <lane id="NE4_1" index="1" speed="20.00" length="791.95" shape="8.05,-1.65 800.00,-1.65"/>
    </edge>
    <edge id="NE5" from="origin" to="top" priority="1">
        <lane id="NE5_0" index="0" speed="20.00" length="791.95" shape="4.95,8.05 4.95,800.00"/>
        <lane id="NE5_1" index="1" speed="20.00" length="791.95" shape="1.65,8.05 1.65,800.00"/>
    </edge>
    <edge id="gneE3" from="bottom" to="origin" priority="1">
        <lane id="gneE3_0" index="0" speed="20.00" length="791.95" shape="4.95,-800.00 4.95,-8.05"/>
        <lane id="gneE3_1" index="1" speed="20.00" length="791.95" shape="1.65,-800.00 1.65,-8.05"/>
    </edge>
    <edge id="gneE4" from="right" to="origin" priority="1">
        <lane id="gneE4_0" index="0" speed="20.00" length="791.95" shape="800.00,4.95 8.05,4.95"/>
        <lane id="gneE4_1" index="1" speed="20.00" length="791.95" shape="800.00,1.65 8.05,1.65"/>
    </edge>

    <junction id="bottom" type="dead_end" x="0.00" y="-800.00" incLanes="NE3_0 NE3_1" intLanes="" shape="0.05,-800.00 -6.55,-800.00 -0.05,-800.00"/>
    <junction id="left" type="dead_end" x="-800.00" y="0.00" incLanes="-gneE0_0 -gneE0_1" intLanes="" shape="-800.00,-0.05 -800.00,6.55 -800.00,0.05"/>
    <junction id="origin" type="priority" x="0.00" y="0.00" incLanes="E5_0 E5_1 gneE4_0 gneE4_1 gneE3_0 gneE3_1 E0_0 E0_1 :origin_w5_0 :origin_w6_0 :origin_w7_0 :origin_w4_0" intLanes=":origin_16_0 :origin_1_0 :origin_1_1 :origin_17_0 :origin_4_0 :origin_5_0 :origin_5_1 :origin_7_0 :origin_18_0 :origin_9_0 :origin_9_1 :origin_19_0 :origin_12_0 :origin_13_0 :origin_13_1 :origin_15_0 :origin_c0_0 :origin_c1_0 :origin_c2_0 :origin_c3_0" shape="-6.55,8.05 6.55,8.05 8.05,6.55 8.05,-6.55 6.55,-8.05 -6.55,-8.05 -8.05,-6.55 -8.05,6.55">
        <request index="0" response="10000000000000000000" foes="10010000100001100000" cont="1"/>
        <request index="1" response="00000000000000000000" foes="01011111100011100000" cont="0"/>
        <request index="2" response="00000000000000000000" foes="01011111100011100000" cont="0"/>
        <request index="3" response="00100000011100000000" foes="00111110011111100000" cont="1"/>
        <request index="4" response="00010000011000000000" foes="00111000011000000000" cont="0"/>
        <request index="5" response="00000000111000001111" foes="10101000111000001111" cont="0"/>
        <request index="6" response="00000000111000001111" foes="10101000111000001111" cont="0"/>
        <request index="7" response="01000111111000001110" foes="01100111111000001110" cont="0"/>
        <request index="8" response="00100000000000000000" foes="01100110000000001000" cont="1"/>
        <request index="9" response="00000000000000000000" foes="01011110000011111000" cont="0"/>
        <request index="10" response="00000000000000000000" foes="01011110000011111000" cont="0"/>
        <request index="11" response="10000000000000000111" foes="11001110000011100111" cont="1"/>
        <request index="12" response="01000000000000000110" foes="11000000000010000110" cont="0"/>
        <request index="13" response="00000000111100001110" foes="10100000111110001110" cont="0"/>
        <request index="14" response="00000000111100001110" foes="10100000111110001110" cont="0"/>
        <request index="15" response="00010000111001111110" foes="10010000111001111110" cont="0"/>
        <request index="16" response="00000000011000001111" foes="00001000011000011111" cont="0"/>
        <request index="17" response="00000110000011110000" foes="00000110000111111000" cont="0"/>
        <request index="18" response="00000000111100000110" foes="00000001111110000110" cont="0"/>
        <request index="19" response="00001111000001100000" foes="00001111100001100001" cont="0"/>
    </junction>
    <junction id="right" type="dead_end" x="800.00" y="0.00" incLanes="NE4_0 NE4_1" intLanes="" shape="800.00,0.05 800.00,-6.55 800.00,-0.05"/>
    <junction id="top" type="dead_end" x="0.00" y="800.00" incLanes="NE5_0 NE5_1" intLanes="" shape="-0.05,800.00 6.55,800.00 0.05,800.00"/>

    <junction id=":origin_16_0" type="internal" x="-5.05" y="7.35" incLanes=":origin_0_0" intLanes=":origin_5_0 :origin_5_1 :origin_11_0 :origin_c0_0 :origin_c3_0"/>
    <junction id=":origin_17_0" type="internal" x="0.05" y="1.98" incLanes=":origin_3_0 gneE3_0 gneE3_1" intLanes=":origin_5_0 :origin_5_1 :origin_7_0 :origin_8_0 :origin_9_0 :origin_9_1 :origin_13_0 :origin_13_1 :origin_15_0 :origin_c0_0 :origin_c1_0"/>
    <junction id=":origin_18_0" type="internal" x="5.05" y="-7.35" incLanes=":origin_8_0" intLanes=":origin_3_0 :origin_13_0 :origin_13_1 :origin_c1_0 :origin_c2_0"/>
    <junction id=":origin_19_0" type="internal" x="-0.05" y="-1.98" incLanes=":origin_11_0 E5_0 E5_1" intLanes=":origin_0_0 :origin_1_0 :origin_1_1 :origin_5_0 :origin_5_1 :origin_7_0 :origin_13_0 :origin_13_1 :origin_15_0 :origin_c2_0 :origin_c3_0"/>

    <connection from="E0" to="NE3" fromLane="0" toLane="0" via=":origin_12_0" dir="r" state="m"/>
    <connection from="E0" to="NE4" fromLane="0" toLane="0" via=":origin_13_0" dir="s" state="m"/>
    <connection from="E0" to="NE4" fromLane="1" toLane="1" via=":origin_13_1" dir="s" state="m"/>
    <connection from="E0" to="NE5" fromLane="1" toLane="1" via=":origin_15_0" dir="l" state="m"/>
    <connection from="E5" to="-gneE0" fromLane="0" toLane="0" via=":origin_0_0" dir="r" state="m"/>
    <connection from="E5" to="NE3" fromLane="0" toLane="0" via=":origin_1_0" dir="s" state="M"/>
    <connection from="E5" to="NE3" fromLane="1" toLane="1" via=":origin_1_1" dir="s" state="M"/>
    <connection from="E5" to="NE4" fromLane="1" toLane="1" via=":origin_3_0" dir="l" state="m"/>
    <connection from="gneE3" to="NE4" fromLane="0" toLane="0" via=":origin_8_0" dir="r" state="m"/>
    <connection from="gneE3" to="NE5" fromLane="0" toLane="0" via=":origin_9_0" dir="s" state="M"/>
    <connection from="gneE3" to="NE5" fromLane="1" toLane="1" via=":origin_9_1" dir="s" state="M"/>
    <connection from="gneE3" to="-gneE0" fromLane="1" toLane="1" via=":origin_11_0" dir="l" state="m"/>
    <connection from="gneE4" to="NE5" fromLane="0" toLane="0" via=":origin_4_0" dir="r" state="m"/>
    <connection from="gneE4" to="-gneE0" fromLane="0" toLane="0" via=":origin_5_0" dir="s" state="m"/>
    <connection from="gneE4" to="-gneE0" fromLane="1" toLane="1" via=":origin_5_1" dir="s" state="m"/>
    <connection from="gneE4" to="NE3" fromLane="1" toLane="1" via=":origin_7_0" dir="l" state="m"/>

    <connection from=":origin_0" to="-gneE0" fromLane="0" toLane="0" via=":origin_16_0" dir="s" state="m"/>
    <connection from=":origin_16" to="-gneE0" fromLane="0" toLane="0" dir="s" state="M"/>
    <connection from=":origin_1" to="NE3" fromLane="0" toLane="0" dir="s" state="M"/>
    <connection from=":origin_1" to="NE3" fromLane="1" toLane="1" dir="s" state="M"/>
    <connection from=":origin_3" to="NE4" fromLane="0" toLane="1" via=":origin_17_0" dir="s" state="m"/>
    <connection from=":origin_17" to="NE4" fromLane="0" toLane="1" dir="s" state="M"/>
    <connection from=":origin_4" to="NE5" fromLane="0" toLane="0" dir="s" state="M"/>
    <connection from=":origin_5" to="-gneE0" fromLane="0" toLane="0" dir="s" state="M"/>
    <connection from=":origin_5" to="-gneE0" fromLane="1" toLane="1" dir="s" state="M"/>
    <connection from=":origin_7" to="NE3" fromLane="0" toLane="1" dir="s" state="M"/>
    <connection from=":origin_8" to="NE4" fromLane="0" toLane="0" via=":origin_18_0" dir="s" state="m"/>
    <connection from=":origin_18" to="NE4" fromLane="0" toLane="0" dir="s" state="M"/>
    <connection from=":origin_9" to="NE5" fromLane="0" toLane="0" dir="s" state="M"/>
    <connection from=":origin_9" to="NE5" fromLane="1" toLane="1" dir="s" state="M"/>
    <connection from=":origin_11" to="-gneE0" fromLane="0" toLane="1" via=":origin_19_0" dir="s" state="m"/>
    <connection from=":origin_19" to="-gneE0" fromLane="0" toLane="1" dir="s" state="M"/>
    <connection from=":origin_12" to="NE3" fromLane="0" toLane="0" dir="s" state="M"/>
    <connection from=":origin_13" to="NE4" fromLane="0" toLane="0" dir="s" state="M"/>
    <connection from=":origin_13" to="NE4" fromLane="1" toLane="1" dir="s" state="M"/>
    <connection from=":origin_15" to="NE5" fromLane="0" toLane="1" dir="s" state="M"/>

    <connection from=":bottom_w0" to="gneE3" fromLane="0" toLane="0" dir="s" state="M"/>
    <connection from="NE3" to=":bottom_w0" fromLane="0" toLane="0" dir="s" state="M"/>
    <connection from=":left_w0" to="E0" fromLane="0" toLane="0" dir="s" state="M"/>
    <connection from="-gneE0" to=":left_w0" fromLane="0" toLane="0" dir="s" state="M"/>
    <connection from=":origin_c0" to=":origin_w4" fromLane="0" toLane="0" dir="s" state="M"/>
    <connection from=":origin_c1" to=":origin_w5" fromLane="0" toLane="0" dir="s" state="M"/>
    <connection from=":origin_c2" to=":origin_w6" fromLane="0" toLane="0" dir="s" state="M"/>
    <connection from=":origin_c3" to=":origin_w7" fromLane="0" toLane="0" dir="s" state="M"/>
    <connection from=":origin_w0" to="-gneE0" fromLane="0" toLane="0" dir="s" state="M"/>
    <connection from="E5" to=":origin_w0" fromLane="0" toLane="0" dir="s" state="M"/>
    <connection from=":origin_w1" to="NE5" fromLane="0" toLane="0" dir="s" state="M"/>
    <connection from="gneE4" to=":origin_w1" fromLane="0" toLane="0" dir="s" state="M"/>
    <connection from=":origin_w2" to="NE4" fromLane="0" toLane="0" dir="s" state="M"/>
    <connection from="gneE3" to=":origin_w2" fromLane="0" toLane="0" dir="s" state="M"/>
    <connection from=":origin_w3" to="NE3" fromLane="0" toLane="0" dir="s" state="M"/>
    <connection from="E0" to=":origin_w3" fromLane="0" toLane="0" dir="s" state="M"/>
    <connection from=":origin_w4" to=":origin_c3" fromLane="0" toLane="0" dir="s" state="m"/>
    <connection from=":origin_w5" to=":origin_c0" fromLane="0" toLane="0" dir="s" state="m"/>
    <connection from=":origin_w6" to=":origin_c1" fromLane="0" toLane="0" dir="s" state="m"/>
    <connection from=":origin_w7" to=":origin_c2" fromLane="0" toLane="0" dir="s" state="m"/>
    <connection from=":right_w0" to="gneE4" fromLane="0" toLane="0" dir="s" state="M"/>
    <connection from="NE4" to=":right_w0" fromLane="0" toLane="0" dir="s" state="M"/>
    <connection from=":top_w0" to="E5" fromLane="0" toLane="0" dir="s" state="M"/>
    <connection from="NE5" to=":top_w0" fromLane="0" toLane="0" dir="s" state="M"/>
</net>
