<configuration>
    <input>
       <net-file value="crossroad.net.xml"/>
       <route-files value="crossroad.rou.xml"/>
    </input>
</configuration>